benzene
  PyMOL3.0          3D                             0

 12 12  0  0  0  0  0  0  0  0999 V2000
   16.4257   -5.3750   25.2545 H   0  0  0  0  0  0  0  0  0  0  0  0
   18.9194   -5.1348   24.8423 H   0  0  0  0  0  0  0  0  0  0  0  0
   18.4730   -6.1130   25.0210 C   0  0  0  0  0  0  0  0  0  0  0  0
   19.2690   -7.2910   25.0360 C   0  0  0  0  0  0  0  0  0  0  0  0
   18.7090   -8.5180   25.2550 C   0  0  0  0  0  0  0  0  0  0  0  0
   17.3400   -8.6460   25.4620 C   0  0  0  0  0  0  0  0  0  0  0  0
   16.5320   -7.5450   25.4620 C   0  0  0  0  0  0  0  0  0  0  0  0
   17.0730   -6.2520   25.2470 C   0  0  0  0  0  0  0  0  0  0  0  0
   20.3435   -7.2140   24.8701 H   0  0  0  0  0  0  0  0  0  0  0  0
   16.9081   -9.6333   25.6256 H   0  0  0  0  0  0  0  0  0  0  0  0
   15.4611   -7.6613   25.6288 H   0  0  0  0  0  0  0  0  0  0  0  0
   19.3418   -9.4054   25.2676 H   0  0  0  0  0  0  0  0  0  0  0  0
  2  3  1  0  0  0  0
  3  4  2  0  0  0  0
  3  8  1  0  0  0  0
  4  5  1  0  0  0  0
  4  9  1  0  0  0  0
  5  6  2  0  0  0  0
  5 12  1  0  0  0  0
  6  7  1  0  0  0  0
  6 10  1  0  0  0  0
  7  8  2  0  0  0  0
  7 11  1  0  0  0  0
  1  8  1  0  0  0  0
M  END
$$$$
