obj01
  PyMOL3.0          3D                             0

 56 61  0  0  0  0  0  0  0  0999 V2000
   21.3669   -5.2445   26.2914 H   0  0  0  0  0  0  0  0  0  0  0  0
   25.5350   -4.3740   26.9420 N   0  0  0  0  0  0  0  0  0  0  0  0
   27.5710   -4.3290   28.2900 C   0  0  0  0  0  0  0  0  0  0  0  0
   26.1950   -4.9640   28.1120 C   0  0  0  0  0  0  0  0  0  0  0  0
   21.4400   -4.8240   25.3760 N   0  0  0  0  0  0  0  0  0  0  0  0
   24.1550   -6.1280   26.6540 O   0  0  0  0  0  0  0  0  0  0  0  0
   25.3360   -4.8280   29.3540 C   0  0  0  0  0  0  0  0  0  0  0  0
   25.2170   -5.8840   30.2550 C   0  0  0  0  0  0  0  0  0  0  0  0
   16.7730   -3.8420   25.1000 N   0  0  0  0  0  0  0  0  0  0  0  0
   24.5130   -5.7490   31.4180 C   0  0  0  0  0  0  0  0  0  0  0  0
   20.8090   -3.9760   23.3880 N   0  0  0  0  0  0  0  0  0  0  0  0
   23.8740   -4.5270   31.7420 C   0  0  0  0  0  0  0  0  0  0  0  0
   23.1570   -4.3220   32.9500 C   0  0  0  0  0  0  0  0  0  0  0  0
   22.5430   -3.1260   33.2030 C   0  0  0  0  0  0  0  0  0  0  0  0
   22.5990   -2.0930   32.2780 C   0  0  0  0  0  0  0  0  0  0  0  0
   23.2840   -2.2440   31.1070 C   0  0  0  0  0  0  0  0  0  0  0  0
   23.9540   -3.4600   30.8120 C   0  0  0  0  0  0  0  0  0  0  0  0
   24.7020   -3.6460   29.6270 C   0  0  0  0  0  0  0  0  0  0  0  0
   24.5600   -5.0240   26.2880 C   0  0  0  0  0  0  0  0  0  0  0  0
   23.9890   -4.3560   25.0680 C   0  0  0  0  0  0  0  0  0  0  0  0
   24.8750   -3.7190   24.1960 C   0  0  0  0  0  0  0  0  0  0  0  0
   24.4330   -3.1750   22.9960 C   0  0  0  0  0  0  0  0  0  0  0  0
   23.0960   -3.2570   22.6330 C   0  0  0  0  0  0  0  0  0  0  0  0
   22.1950   -3.8680   23.5060 C   0  0  0  0  0  0  0  0  0  0  0  0
   22.6280   -4.4030   24.7220 C   0  0  0  0  0  0  0  0  0  0  0  0
   20.4090   -4.5430   24.5100 C   0  0  0  0  0  0  0  0  0  0  0  0
   18.9840   -4.7920   24.8160 C   0  0  0  0  0  0  0  0  0  0  0  0
   18.4730   -6.1130   25.0210 C   0  0  0  0  0  0  0  0  0  0  0  0
   19.2690   -7.2910   25.0360 C   0  0  0  0  0  0  0  0  0  0  0  0
   18.7090   -8.5180   25.2550 C   0  0  0  0  0  0  0  0  0  0  0  0
   17.3400   -8.6460   25.4620 C   0  0  0  0  0  0  0  0  0  0  0  0
   16.5320   -7.5450   25.4620 C   0  0  0  0  0  0  0  0  0  0  0  0
   17.0730   -6.2520   25.2470 C   0  0  0  0  0  0  0  0  0  0  0  0
   16.2870   -5.0700   25.2670 C   0  0  0  0  0  0  0  0  0  0  0  0
   18.0900   -3.7220   24.8820 C   0  0  0  0  0  0  0  0  0  0  0  0
   20.3435   -7.2140   24.8701 H   0  0  0  0  0  0  0  0  0  0  0  0
   16.9081   -9.6333   25.6256 H   0  0  0  0  0  0  0  0  0  0  0  0
   15.4611   -7.6613   25.6288 H   0  0  0  0  0  0  0  0  0  0  0  0
   19.3418   -9.4054   25.2676 H   0  0  0  0  0  0  0  0  0  0  0  0
   18.4914   -2.7177   24.7467 H   0  0  0  0  0  0  0  0  0  0  0  0
   15.2144   -5.1749   25.4299 H   0  0  0  0  0  0  0  0  0  0  0  0
   25.9299   -3.6475   24.4610 H   0  0  0  0  0  0  0  0  0  0  0  0
   25.1429   -2.6794   22.3338 H   0  0  0  0  0  0  0  0  0  0  0  0
   22.7550   -2.8505   21.6809 H   0  0  0  0  0  0  0  0  0  0  0  0
   23.0951   -5.1259   33.6835 H   0  0  0  0  0  0  0  0  0  0  0  0
   22.0910   -1.1519   32.4886 H   0  0  0  0  0  0  0  0  0  0  0  0
   22.0047   -2.9831   34.1400 H   0  0  0  0  0  0  0  0  0  0  0  0
   23.3168   -1.4225   30.3913 H   0  0  0  0  0  0  0  0  0  0  0  0
   24.4421   -6.5921   32.1052 H   0  0  0  0  0  0  0  0  0  0  0  0
   25.6951   -6.8368   30.0275 H   0  0  0  0  0  0  0  0  0  0  0  0
   24.7758   -2.8267   28.9119 H   0  0  0  0  0  0  0  0  0  0  0  0
   25.8204   -3.4595   26.6221 H   0  0  0  0  0  0  0  0  0  0  0  0
   28.2741   -4.7855   27.5933 H   0  0  0  0  0  0  0  0  0  0  0  0
   27.5065   -3.2592   28.0914 H   0  0  0  0  0  0  0  0  0  0  0  0
   27.9165   -4.4894   29.3113 H   0  0  0  0  0  0  0  0  0  0  0  0
   26.3300   -6.0333   27.9491 H   0  0  0  0  0  0  0  0  0  0  0  0
  2  4  1  0  0  0  0
  2 19  1  0  0  0  0
  2 52  1  0  0  0  0
  3  4  1  0  0  0  0
  3 53  1  0  0  0  0
  3 54  1  0  0  0  0
  3 55  1  0  0  0  0
  4  7  1  0  0  0  0
  4 56  1  0  0  0  0
  1  5  1  0  0  0  0
  5 25  1  0  0  0  0
  5 26  1  0  0  0  0
  6 19  2  0  0  0  0
  7  8  1  0  0  0  0
  7 18  2  0  0  0  0
  8 10  2  0  0  0  0
  8 50  1  0  0  0  0
  9 34  2  0  0  0  0
  9 35  1  0  0  0  0
 10 12  1  0  0  0  0
 10 49  1  0  0  0  0
 11 24  1  0  0  0  0
 11 26  2  0  0  0  0
 12 13  2  0  0  0  0
 12 17  1  0  0  0  0
 13 14  1  0  0  0  0
 13 45  1  0  0  0  0
 14 15  2  0  0  0  0
 14 47  1  0  0  0  0
 15 16  1  0  0  0  0
 15 46  1  0  0  0  0
 16 17  2  0  0  0  0
 16 48  1  0  0  0  0
 17 18  1  0  0  0  0
 18 51  1  0  0  0  0
 19 20  1  0  0  0  0
 20 21  1  0  0  0  0
 20 25  2  0  0  0  0
 21 22  2  0  0  0  0
 21 42  1  0  0  0  0
 22 23  1  0  0  0  0
 22 43  1  0  0  0  0
 23 24  2  0  0  0  0
 23 44  1  0  0  0  0
 24 25  1  0  0  0  0
 26 27  1  0  0  0  0
 27 28  1  0  0  0  0
 27 35  2  0  0  0  0
 28 29  2  0  0  0  0
 28 33  1  0  0  0  0
 29 30  1  0  0  0  0
 29 36  1  0  0  0  0
 30 31  2  0  0  0  0
 30 39  1  0  0  0  0
 31 32  1  0  0  0  0
 31 37  1  0  0  0  0
 32 33  2  0  0  0  0
 32 38  1  0  0  0  0
 33 34  1  0  0  0  0
 34 41  1  0  0  0  0
 35 40  1  0  0  0  0
M  END
$$$$
